Version 4
SHEET 1 880 680
WIRE 80 -64 -48 -64
WIRE 240 -64 160 -64
WIRE -48 80 -48 -64
WIRE 240 80 240 -64
WIRE 240 176 240 160
WIRE -48 208 -48 160
WIRE 240 208 240 176
WIRE 240 208 -48 208
SYMBOL bv -48 64 R0
WINDOW 123 0 0 Left 0
WINDOW 39 0 0 Left 0
SYMATTR InstName V1
SYMATTR Value 10
SYMATTR Prefix V
SYMBOL res 176 -80 R90
WINDOW 0 0 56 VBottom 2
WINDOW 3 32 56 VTop 2
SYMATTR InstName R1
SYMATTR Value 1000
SYMBOL NTCLE203E3103_B0 240 128 R90
SYMATTR InstName U1
TEXT 288 -80 Left 2 !.dc TEMP -50 150 1
TEXT -82 252 Left 2 !;tran 30u startup
